%chk=C:\Users\Mrs\Desktop\chem\QM\mol+li\mol+li.C1.chk
# opt freq b3lyp/6-31+g(d,p) geom=connectivity

M0001

1 1
 C                 -1.25447562    1.08291578    0.37813156
 H                 -1.66291215    1.88672207    1.00050691
 H                 -1.45581009    1.32959888   -0.66871028
 C                  0.24623428    0.95478794    0.64191476
 H                  0.40354355    0.82783907    1.72121449
 H                  0.71197542    1.91289719    0.37719685
 C                  1.00210915   -0.16572841   -0.09730538
 H                  2.07571323    0.04501578   -0.00987728
 C                  0.65971857   -0.25074256   -1.58218635
 H                  0.79798867    0.72146914   -2.06697911
 H                 -0.37427225   -0.57159025   -1.74761500
 H                  1.31232822   -0.96952944   -2.09049339
 N                  0.77198241   -1.49378447    0.54614822
 H                  1.36413588   -2.15648054    0.00755566
 H                  1.31357516   -1.45183916    1.43203464
 Li                -1.05030083   -1.73399025    0.74704394
 O                 -1.95838888   -0.12666165    0.69887833
 H                 -2.90314470    0.15910088    0.71254144

 1 2 1.0 3 1.0 4 1.0 17 1.0
 2
 3
 4 5 1.0 6 1.0 7 1.0
 5
 6
 7 8 1.0 9 1.0 13 1.0
 8
 9 10 1.0 11 1.0 12 1.0
 10
 11
 12
 13 14 1.0 15 1.0
 14
 15
 16
 17 18 1.0
 18

