%chk=C:\Users\Mrs\Desktop\chem\QM\molecule\mol.C1.chk
# opt freq b3lyp/6-31+g(d,p) geom=connectivity

M0001

0 1
 C                 -0.39418233    1.03951376    1.67335377
 H                  0.59257479    0.99762975    2.14555661
 H                 -0.86912525    1.98166480    1.96345628
 C                 -0.28210753    0.95566394    0.15150297
 H                  0.21081776    1.86597029   -0.21077299
 H                 -1.28944028    0.93377673   -0.28421415
 C                  0.51193034   -0.27213381   -0.32959887
 H                  1.50642366   -0.25288310    0.13156321
 C                  0.67998093   -0.24762725   -1.84796611
 H                  1.20831476    0.65861037   -2.16313101
 H                 -0.28819225   -0.26809666   -2.36079605
 H                  1.26421697   -1.10798624   -2.19276952
 O                 -1.18864370   -0.02077384    2.18776863
 H                 -0.87333818   -0.83158466    1.72967042
 N                 -0.15341738   -1.51767283    0.07549127
 H                 -1.04121396   -1.60167205   -0.42665084
 H                  0.40540166   -2.31239921   -0.24246363

 1 2 1.0 3 1.0 4 1.0 13 1.0
 2
 3
 4 5 1.0 6 1.0 7 1.0
 5
 6
 7 8 1.0 9 1.0 15 1.0
 8
 9 10 1.0 11 1.0 12 1.0
 10
 11
 12
 13 14 1.0
 14
 15 16 1.0 17 1.0
 16
 17

